case24.m
% used in tests of,
% - non-contiguous bus ids
% - tranformer orentation swapping
% - dual values
% - clipping cost functions using ncost
% - linear objective function
% - bus type correction

function mpc = case5
mpc.version = '2';
mpc.baseMVA = 100.0;

%% bus data
%	bus_i	type	Pd	Qd		Gs	 Bs		area	Vm			Va		baseKV	zone	Vmax		Vmin
mpc.bus = [
	1	 1	 25500.0 8248.328	0.0	 0.0	 1	    1.00000	    0.00000	 20.0	 1	    1.100	    0.900;
	2	 1	 0.0	 0.0	 	0.0	 0.0	 1	    1.00000	    0.00000	 20.0	 1	    1.100	    0.900;
	3	 1	 0.0	 0.0	 	0.0	 0.0	 1	    1.00000	    0.00000	 20.0	 1	    1.100	    0.900;
	4	 3	 0.0	 0.0	 	0.0	 0.0	 1	    1.00000	    0.00000	 20.0	 1	    1.100	    0.900;
	5	 1	 0.0	 0.0	 	0.0	 0.0	 1	    1.00000	    0.00000	 20.0	 1	    1.100	    0.900;
	6	 1	 0.0	 0.0	 	0.0	 0.0	 1	    1.00000	    0.00000	 20.0	 1	    1.100	    0.900;
	7	 1	 0.0	 0.0	 	0.0	 0.0	 1	    1.00000	    0.00000	 20.0	 1	    1.100	    0.900;
	8	 1	 0.0	 0.0	 	0.0	 0.0	 1	    1.00000	    0.00000	 20.0	 1	    1.100	    0.900;
	9	 1	 0.0	 0.0	 	0.0	 0.0	 1	    1.00000	    0.00000	 20.0	 1	    1.100	    0.900;
];


%% branch data
%	fbus	tbus	r		x		 b	 	 rateA		rate_b	rateC	ratio	angle	status	angmin	angmax
mpc.branch = [
	1	 	2	 0			0		 10.00	 0.0		0.0		30000	0.0	  0.0	 1	 -30.0	 	30.0;
	2	 	3	 0			0		 8.75	 0.0		0.0 	2000	0.0	  0.0	 1	 -30.0	 	30.0;
	1	 	3	 0			0		 10.00	 0.0		0.0		26000	0.0	  0.0	 1	 -30.0	 	30.0;
	3	 	4	 0			0		 10.00	 0.0		0.0		26000	0.0	  0.0	 1	 -30.0	 	30.0;
	5	 	6	 0.1940		0.315	 10.00	 100.0		75.0	100		0.0	  0.0	 1	 -30.0	 	30.0;
	6	 	7	 0.1940		0.315	 8.75	 40.0		30.0 	40		0.0	  0.0	 1	 -30.0	 	30.0;
	5	 	8	 0.1940		0.315	 10.00	 100.0		75.0	100		0.0	  0.0	 1	 -30.0	 	30.0;
	8	 	9	 0.1940		0.315	 10.00	 100.0		75.0	100 	0.0	  0.0	 1	 -30.0	 	30.0;
];

%% generator data
%	bus	Pg		Qg		Qmax	Qmin		Vg			mBase	status	Pmax		Pmin
mpc.gen = [
	2	 0.0	 0.0	 15000.0 -15000.0 	1.07762	 	41.0 	 1	 	1000.0	 	0.0;
	2	 0.0	 0.0	 15000.0 -15000.0 	1.07762	 	42.0 	 1	 	1000.0	 	0.0;
	2	 0.0	 0.0	 15000.0 -15000.0 	1.07762	 	43.0 	 1	 	1000.0	 	0.0;
	2	 0.0	 0.0	 15000.0 -15000.0 	1.07762	 	44.0 	 1	 	1000.0	 	0.0;
	2	 0.0	 0.0	 15000.0 -15000.0 	1.07762	 	45.0 	 1	 	1000.0	 	0.0;
	2	 0.0	 0.0	 15000.0 -15000.0 	1.07762	 	46.0 	 1	 	1000.0	 	0.0;
	2	 0.0	 0.0	 15000.0 -15000.0 	1.07762	 	47.0 	 1	 	1000.0	 	0.0;
	2	 0.0	 0.0	 15000.0 -15000.0 	1.07762	 	48.0 	 1	 	1000.0	 	0.0;
	2	 0.0	 0.0	 15000.0 -15000.0 	1.07762	 	49.0 	 1	 	1000.0	 	0.0;
	2	 0.0	 0.0	 15000.0 -15000.0 	1.07762	 	50.0 	 1	 	1000.0	 	0.0;
	2	 0.0	 0.0	 15000.0 -15000.0 	1.07762	 	51.0 	 1	 	1000.0	 	0.0;
	2	 0.0	 0.0	 15000.0 -15000.0 	1.07762	 	52.0 	 1	 	1000.0	 	0.0;
	2	 0.0	 0.0	 15000.0 -15000.0 	1.07762	 	53.0 	 1	 	1000.0	 	0.0;
	2	 0.0	 0.0	 15000.0 -15000.0 	1.07762	 	54.0 	 1	 	1000.0	 	0.0;
	2	 0.0	 0.0	 15000.0 -15000.0 	1.07762	 	55.0 	 1	 	1000.0	 	0.0;
	2	 0.0	 0.0	 15000.0 -15000.0 	1.07762	 	56.0 	 1	 	1000.0	 	0.0;
	2	 0.0	 0.0	 15000.0 -15000.0 	1.07762	 	57.0 	 1	 	1000.0	 	0.0;
	2	 0.0	 0.0	 15000.0 -15000.0 	1.07762	 	58.0 	 1	 	1000.0	 	0.0;
	2	 0.0	 0.0	 15000.0 -15000.0 	1.07762	 	59.0 	 1	 	1000.0	 	0.0;
	2	 0.0	 0.0	 15000.0 -15000.0 	1.07762	 	60.0 	 1	 	1000.0	 	0.0;
	5	 0.0	 0.0	 15000.0 -15000.0	1.07762	 	21.0	 1	 	1000.0		0.0;
	5	 0.0	 0.0	 15000.0 -15000.0	1.07762	 	22.0	 1	 	1000.0		0.0;
	5	 0.0	 0.0	 15000.0 -15000.0	1.07762	 	23.0	 1	 	1000.0		0.0;
	5	 0.0	 0.0	 15000.0 -15000.0	1.07762	 	24.0	 1	 	1000.0		0.0;
	5	 0.0	 0.0	 15000.0 -15000.0	1.07762	 	25.0	 1	 	1000.0		0.0;
	5	 0.0	 0.0	 15000.0 -15000.0	1.07762	 	36.0	 1	 	1000.0		0.0;
	5	 0.0	 0.0	 15000.0 -15000.0	1.07762	 	27.0	 1	 	1000.0		0.0;
	5	 0.0	 0.0	 15000.0 -15000.0	1.07762	 	28.0	 1	 	1000.0		0.0;
	5	 0.0	 0.0	 15000.0 -15000.0	1.07762	 	29.0	 1	 	1000.0		0.0;
	5	 0.0	 0.0	 15000.0 -15000.0	1.07762	 	30.0	 1	 	1000.0		0.0;
	5	 0.0	 0.0	 15000.0 -15000.0	1.07762	 	31.0	 1	 	1000.0		0.0;
	5	 0.0	 0.0	 15000.0 -15000.0	1.07762	 	32.0	 1	 	1000.0		0.0;
	5	 0.0	 0.0	 15000.0 -15000.0	1.07762	 	33.0	 1	 	1000.0		0.0;
	5	 0.0	 0.0	 15000.0 -15000.0	1.07762	 	34.0	 1	 	1000.0		0.0;
	5	 0.0	 0.0	 15000.0 -15000.0	1.07762	 	35.0	 1	 	1000.0		0.0;
	5	 0.0	 0.0	 15000.0 -15000.0	1.07762	 	36.0	 1	 	1000.0		0.0;
	5	 0.0	 0.0	 15000.0 -15000.0	1.07762	 	37.0	 1	 	1000.0		0.0;
	5	 0.0	 0.0	 15000.0 -15000.0	1.07762	 	38.0	 1	 	1000.0		0.0;
	5	 0.0	 0.0	 15000.0 -15000.0	1.07762	 	39.0	 1	 	1000.0		0.0;
	5	 0.0	 0.0	 15000.0 -15000.0	1.07762	 	40.0	 1	 	1000.0		0.0;
	5	 0.0	 0.0	 3750.0	 -3750.0	1.07762	 	66.0	 1	 	1000.0	 	0.0;
	5	 0.0	 0.0	 3750.0	 -3750.0	1.07762	 	67.0	 1	 	1000.0	 	0.0;
	5	 0.0	 0.0	 3750.0	 -3750.0	1.07762	 	68.0	 1	 	1000.0	 	0.0;
	5	 0.0	 0.0	 3750.0	 -3750.0	1.07762	 	69.0	 1	 	1000.0	 	0.0;
	5	 0.0	 0.0	 3750.0	 -3750.0	1.07762	 	70.0	 1	 	1000.0	 	0.0;
	7	 0.0	 0.0	 33.75	 -33.75	 	1.1	 	 	1.0   	 1	 	50.0		0.0;
	7	 0.0	 0.0	 18.0	 -18.0	 	1.06414	 	62.0	 1	 	10.0	 	0.0;
	7	 0.0	 0.0	 18.0	 -18.0	 	1.06414	 	63.0	 1	 	10.0	 	0.0;
	7	 0.0	 0.0	 18.0	 -18.0	 	1.06414	 	64.0	 1	 	10.0	 	0.0;
	9	 0.0	 0.0	 37.5	 -37.5	 	1.07762	 	1.0	 	 1	 	50.0	 	0.0;
];

%% generator cost data
%	1	startup	shutdown	n	c(n-1)	...	c0
mpc.gencost = [
	1	 31.0	 0.0	 2	   0.000000	  0.000000	   21.000000	0.000000;
	1	 31.0	 0.0	 2	   0.000000	  0.000000	   21.000000	0.000000;
	1	 68.0	 0.0	 2	   0.000000	  0.000000	   66.000000	0.000000;
	1	 1.0	 0.0	 2	   0.000000	  0.000000	   1.000000	   	0.000000;
	1	 63.0	 0.0	 2	   0.000000	  0.000000	   62.000000	0.000000;
	1	 1.0	 0.0	 2	   0.000000	  0.000000	   2.000000	   	0.000000;
	1	 68.0	 0.0	 2	   0.000000	  0.000000	   66.000000	0.000000;
	1	 1.0	 0.0	 2	   0.000000	  0.000000	   1.000000	   	0.000000;
	1	 63.0	 0.0	 2	   0.000000	  0.000000	   62.000000	0.000000;
	1	 1.0	 0.0	 2	   0.000000	  0.000000	   2.000000	   	0.000000;
	1	 31.0	 0.0	 2	   0.000000	  0.000000	   21.000000	0.000000;
	1	 31.0	 0.0	 2	   0.000000	  0.000000	   21.000000	0.000000;
	1	 68.0	 0.0	 2	   0.000000	  0.000000	   66.000000	0.000000;
	1	 1.0	 0.0	 2	   0.000000	  0.000000	   1.000000	   	0.000000;
	1	 63.0	 0.0	 2	   0.000000	  0.000000	   62.000000	0.000000;
	1	 1.0	 0.0	 2	   0.000000	  0.000000	   2.000000	   	0.000000;
	1	 68.0	 0.0	 2	   0.000000	  0.000000	   66.000000	0.000000;
	1	 1.0	 0.0	 2	   0.000000	  0.000000	   1.000000	   	0.000000;
	1	 63.0	 0.0	 2	   0.000000	  0.000000	   62.000000	0.000000;
	1	 1.0	 0.0	 2	   0.000000	  0.000000	   2.000000	   	0.000000;
	1	 31.0	 0.0	 2	   0.000000	  0.000000	   21.000000	0.000000;
	1	 31.0	 0.0	 2	   0.000000	  0.000000	   21.000000	0.000000;
	1	 68.0	 0.0	 2	   0.000000	  0.000000	   66.000000	0.000000;
	1	 1.0	 0.0	 2	   0.000000	  0.000000	   1.000000	   	0.000000;
	1	 63.0	 0.0	 2	   0.000000	  0.000000	   62.000000	0.000000;
	1	 1.0	 0.0	 2	   0.000000	  0.000000	   2.000000	   	0.000000;
	1	 68.0	 0.0	 2	   0.000000	  0.000000	   66.000000	0.000000;
	1	 1.0	 0.0	 2	   0.000000	  0.000000	   1.000000	   	0.000000;
	1	 63.0	 0.0	 2	   0.000000	  0.000000	   62.000000	0.000000;
	1	 1.0	 0.0	 2	   0.000000	  0.000000	   2.000000	   	0.000000;
	1	 31.0	 0.0	 2	   0.000000	  0.000000	   21.000000	0.000000;
	1	 31.0	 0.0	 2	   0.000000	  0.000000	   21.000000	0.000000;
	1	 68.0	 0.0	 2	   0.000000	  0.000000	   66.000000	0.000000;
	1	 1.0	 0.0	 2	   0.000000	  0.000000	   1.000000	   	0.000000;
	1	 63.0	 0.0	 2	   0.000000	  0.000000	   62.000000	0.000000;
	1	 1.0	 0.0	 2	   0.000000	  0.000000	   2.000000	   	0.000000;
	1	 68.0	 0.0	 2	   0.000000	  0.000000	   66.000000	0.000000;
	1	 1.0	 0.0	 2	   0.000000	  0.000000	   1.000000	   	0.000000;
	1	 63.0	 0.0	 2	   0.000000	  0.000000	   62.000000	0.000000;
	1	 1.0	 0.0	 2	   0.000000	  0.000000	   2.000000	   	0.000000;
	1	 31.0	 0.0	 2	   0.000000	  0.000000	   21.000000	0.000000;
	1	 31.0	 0.0	 2	   0.000000	  0.000000	   21.000000	0.000000;
	1	 68.0	 0.0	 2	   0.000000	  0.000000	   66.000000	0.000000;
	1	 1.0	 0.0	 2	   0.000000	  0.000000	   1.000000	   	0.000000;
	1	 63.0	 0.0	 2	   0.000000	  0.000000	   62.000000	0.000000;
	1	 1.0	 0.0	 2	   0.000000	  0.000000	   2.000000	   	0.000000;
	1	 68.0	 0.0	 2	   0.000000	  0.000000	   66.000000	0.000000;
	1	 1.0	 0.0	 2	   0.000000	  0.000000	   1.000000	   	0.000000;
	1	 63.0	 0.0	 2	   0.000000	  0.000000	   62.000000	0.000000;
	1	 1.0	 0.0	 2	   0.000000	  0.000000	   2.000000	   	0.000000;
];


